14
 Energy =      -307.634712  
    C        1.61401        3.19933        1.23924
    C        1.00821        1.87895        1.67970
    O        1.75204        0.79392        1.14230
    C        3.10913        0.87382        1.55624
    C        3.71491        2.19421        1.11579
    O        2.97108        3.27923        1.65321
    H        1.09397        4.04177        1.69516
    H        1.55659        3.28448        0.14623
    H       -0.01332        1.77403        1.31435
    H        1.01053        1.82012        2.77594
    H        3.62916        0.03138        1.10032
    H        3.16656        0.78867        2.64925
    H        3.71257        2.25303        0.01955
    H        4.73645        2.29915        1.48111
