13
 Energy =      -232.441099  
    C        1.82587        1.46841        2.84824
    C        0.77815        2.56740        2.60893
    C        2.37578        1.00159        1.51571
    C        3.61415        1.69839        1.00266
    O        1.82292        0.12730        0.88056
    H        2.63331        1.84950        3.47801
    H        1.36163        0.61216        3.33816
    H       -0.03347        2.18224        1.99117
    H        0.36115        2.90836        3.55680
    H        1.21629        3.43052        2.10332
    H        3.79029        1.42779       -0.03575
    H        3.51497        2.78146        1.10514
    H        4.46896        1.39208        1.61207
