6
 Energy =      -132.740612  
    C        0.40709        0.89538        0.51961
    C        1.86882        0.94247        0.48959
    N        3.02198        0.97959        0.46584
    H        0.00169        1.77808        0.02736
    H        0.05850        0.00310        0.00179
    H        0.06231        0.86948        1.55221
