14
 Energy =      -287.589761  
    C        0.04729        0.00042       -2.44475
    C        0.03185        1.20606       -3.15723
    C       -0.00296        1.20122       -4.54728
    C       -0.02139        0.00195       -5.25673
    C       -0.00294       -1.19816       -4.54849
    C        0.03187       -1.20454       -3.15850
    H        0.05344        2.14594       -2.61674
    H       -0.01574        2.14557       -5.07819
    H       -0.01571       -2.14185       -5.08059
    H        0.05348       -2.14496       -2.61898
    N        0.13161       -0.00034       -1.05305
    H       -0.19534        0.83624       -0.59872
    H       -0.19537       -0.83738       -0.59961
    H       -0.04893        0.00242       -6.33848
