9
 Energy =      -155.021707  
    C        1.02011        0.88807        0.97475
    C        1.86679        1.99403        1.56995
    O        3.18474        1.47863        1.73848
    H       -0.00559        1.22964        0.82431
    H        1.01098        0.02538        1.64181
    H        1.43353        0.57747        0.01458
    H        1.87931        2.86172        0.90156
    H        1.45408        2.30837        2.53469
    H        3.74984        2.15848        2.11367
